#\#CIF_2.0

##########################################################################
#               Crystallographic Information Format file
#               Produced by PyCifRW module
#
#  This is a CIF file.  CIF has been adopted by the International
#  Union of Crystallography as the standard for data archiving and
#  transmission.
#
#  For information on this file format, follow the CIF links at
#  http://www.iucr.org
##########################################################################

data_block_1

_chemical_name_common                   MoS2
_cell_length_a                          44.052734
_cell_length_b                          71.982422
_cell_length_c                          6.147000
_cell_angle_alpha                       90
_cell_angle_beta                        90
_cell_angle_gamma                       90
_space_group_name_H-M_alt               'P 1'
_space_group_IT_number                  1
loop_
  _space_group_symop_operation_xyz
         'x, y, z' 
loop_
  _atom_site_label
  _atom_site_occupancy
  _atom_site_fract_x
  _atom_site_fract_y
  _atom_site_fract_z
  _atom_site_adp_type
  _atom_site_B_iso_or_equiv
  _atom_site_type_symbol
         Mo        1.0       0.944598  0.014710  0.500000  Biso      1.000000  Mo       
         Mo        1.0       0.878150  0.015092  0.500000  Biso      1.000000  Mo       
         Mo        1.0       0.809577  0.015866  0.500000  Biso      1.000000  Mo       
         Mo        1.0       0.745709  0.016858  0.500000  Biso      1.000000  Mo       
         Mo        1.0       0.677587  0.018256  0.500000  Biso      1.000000  Mo       
         Mo        1.0       0.612790  0.018962  0.500000  Biso      1.000000  Mo       
         Mo        1.0       0.542879  0.020736  0.500000  Biso      1.000000  Mo       
         Mo        1.0       0.474988  0.022465  0.500000  Biso      1.000000  Mo       
         Mo        1.0       0.407290  0.023677  0.500000  Biso      1.000000  Mo       
         Mo        1.0       0.337499  0.025436  0.500000  Biso      1.000000  Mo       
         Mo        1.0       0.269154  0.026829  0.500000  Biso      1.000000  Mo       
         Mo        1.0       0.201236  0.028497  0.500000  Biso      1.000000  Mo       
         Mo        1.0       0.133972  0.029279  0.500000  Biso      1.000000  Mo       
         Mo        1.0       0.841162  0.053574  0.500000  Biso      1.000000  Mo       
         S         1.0       0.841162  0.053574  0.950000  Biso      1.000000  S        
         Mo        1.0       0.974582  0.054512  0.500000  Biso      1.000000  Mo       
         Mo        1.0       0.902624  0.054196  0.500000  Biso      1.000000  Mo       
         Mo        1.0       0.775794  0.054700  0.500000  Biso      1.000000  Mo       
         Mo        1.0       0.707511  0.055814  0.500000  Biso      1.000000  Mo       
         Mo        1.0       0.570301  0.056962  0.500000  Biso      1.000000  Mo       
         Mo        1.0       0.640178  0.057309  0.500000  Biso      1.000000  Mo       
         Mo        1.0       0.504069  0.057862  0.500000  Biso      1.000000  Mo       
         Mo        1.0       0.363012  0.060410  0.500000  Biso      1.000000  Mo       
         Mo        1.0       0.434408  0.061107  0.500000  Biso      1.000000  Mo       
         Mo        1.0       0.299633  0.063306  0.500000  Biso      1.000000  Mo       
         Mo        1.0       0.230141  0.065470  0.500000  Biso      1.000000  Mo       
         Mo        1.0       0.163336  0.066820  0.500000  Biso      1.000000  Mo       
         Mo        1.0       0.094940  0.069392  0.500000  Biso      1.000000  Mo       
         Mo        1.0       0.029919  0.070699  0.500000  Biso      1.000000  Mo       
         Mo        1.0       0.870547  0.086303  0.500000  Biso      1.000000  Mo       
         Mo        1.0       0.940482  0.088697  0.500000  Biso      1.000000  Mo       
         Mo        1.0       0.805763  0.091176  0.500000  Biso      1.000000  Mo       
         Mo        1.0       0.737841  0.090692  0.500000  Biso      1.000000  Mo       
         Mo        1.0       0.672400  0.091629  0.500000  Biso      1.000000  Mo       
         Mo        1.0       0.603023  0.093062  0.500000  Biso      1.000000  Mo       
         Mo        1.0       0.535066  0.093696  0.500000  Biso      1.000000  Mo       
         Mo        1.0       0.466956  0.095664  0.500000  Biso      1.000000  Mo       
         Mo        1.0       0.399507  0.097027  0.500000  Biso      1.000000  Mo       
         Mo        1.0       0.330034  0.099917  0.500000  Biso      1.000000  Mo       
         Mo        1.0       0.260414  0.100075  0.500000  Biso      1.000000  Mo       
         Mo        1.0       0.193682  0.103567  0.500000  Biso      1.000000  Mo       
         Mo        1.0       0.125606  0.104317  0.500000  Biso      1.000000  Mo       
         Mo        1.0       0.054429  0.105658  0.500000  Biso      1.000000  Mo       
         Mo        1.0       0.971333  0.122070  0.500000  Biso      1.000000  Mo       
         Mo        1.0       0.906424  0.122085  0.500000  Biso      1.000000  Mo       
         Mo        1.0       0.837681  0.123701  0.500000  Biso      1.000000  Mo       
         Mo        1.0       0.769509  0.124638  0.500000  Biso      1.000000  Mo       
         Mo        1.0       0.702351  0.126991  0.500000  Biso      1.000000  Mo       
         Mo        1.0       0.633600  0.127808  0.500000  Biso      1.000000  Mo       
         Mo        1.0       0.566933  0.128821  0.500000  Biso      1.000000  Mo       
         Mo        1.0       0.499524  0.129813  0.500000  Biso      1.000000  Mo       
         Mo        1.0       0.429783  0.132974  0.500000  Biso      1.000000  Mo       
         Mo        1.0       0.362780  0.134322  0.500000  Biso      1.000000  Mo       
         Mo        1.0       0.293578  0.135465  0.500000  Biso      1.000000  Mo       
         Mo        1.0       0.225342  0.135759  0.500000  Biso      1.000000  Mo       
         Mo        1.0       0.160427  0.138268  0.500000  Biso      1.000000  Mo       
         Mo        1.0       0.090236  0.141516  0.500000  Biso      1.000000  Mo       
         Mo        1.0       0.023791  0.142010  0.500000  Biso      1.000000  Mo       
         Mo        1.0       0.937711  0.159254  0.500000  Biso      1.000000  Mo       
         Mo        1.0       0.869455  0.160144  0.500000  Biso      1.000000  Mo       
         Mo        1.0       0.804786  0.161026  0.500000  Biso      1.000000  Mo       
         Mo        1.0       0.735656  0.162566  0.500000  Biso      1.000000  Mo       
         Mo        1.0       0.669216  0.164095  0.500000  Biso      1.000000  Mo       
         Mo        1.0       0.599764  0.165106  0.500000  Biso      1.000000  Mo       
         Mo        1.0       0.532031  0.167064  0.500000  Biso      1.000000  Mo       
         Mo        1.0       0.463257  0.168875  0.500000  Biso      1.000000  Mo       
         Mo        1.0       0.395020  0.168699  0.500000  Biso      1.000000  Mo       
         Mo        1.0       0.325096  0.171567  0.500000  Biso      1.000000  Mo       
         S         1.0       0.325096  0.171567  0.950000  Biso      1.000000  S        
         Mo        1.0       0.258651  0.172727  0.500000  Biso      1.000000  Mo       
         Mo        1.0       0.190159  0.173530  0.500000  Biso      1.000000  Mo       
         Mo        1.0       0.124934  0.174888  0.500000  Biso      1.000000  Mo       
         Mo        1.0       0.055607  0.177648  0.500000  Biso      1.000000  Mo       
         Mo        1.0       0.969958  0.195861  0.500000  Biso      1.000000  Mo       
         Mo        1.0       0.902505  0.195856  0.500000  Biso      1.000000  Mo       
         Mo        1.0       0.833512  0.198047  0.500000  Biso      1.000000  Mo       
         Mo        1.0       0.767902  0.200791  0.500000  Biso      1.000000  Mo       
         Mo        1.0       0.699763  0.200913  0.500000  Biso      1.000000  Mo       
         Mo        1.0       0.629770  0.202251  0.500000  Biso      1.000000  Mo       
         Mo        1.0       0.562900  0.203235  0.500000  Biso      1.000000  Mo       
         Mo        1.0       0.495186  0.203807  0.500000  Biso      1.000000  Mo       
         Mo        1.0       0.426572  0.205488  0.500000  Biso      1.000000  Mo       
         Mo        1.0       0.358049  0.206651  0.500000  Biso      1.000000  Mo       
         Mo        1.0       0.289954  0.209655  0.500000  Biso      1.000000  Mo       
         Mo        1.0       0.222747  0.210369  0.500000  Biso      1.000000  Mo       
         Mo        1.0       0.157270  0.211098  0.500000  Biso      1.000000  Mo       
         Mo        1.0       0.088891  0.213285  0.500000  Biso      1.000000  Mo       
         Mo        1.0       0.020403  0.214348  0.500000  Biso      1.000000  Mo       
         Mo        1.0       0.934596  0.234046  0.500000  Biso      1.000000  Mo       
         Mo        1.0       0.864434  0.233847  0.500000  Biso      1.000000  Mo       
         Mo        1.0       0.797234  0.234411  0.500000  Biso      1.000000  Mo       
         Mo        1.0       0.730449  0.235754  0.500000  Biso      1.000000  Mo       
         Mo        1.0       0.663435  0.236814  0.500000  Biso      1.000000  Mo       
         Mo        1.0       0.597414  0.238477  0.500000  Biso      1.000000  Mo       
         Mo        1.0       0.529268  0.240291  0.500000  Biso      1.000000  Mo       
         Mo        1.0       0.459740  0.240599  0.500000  Biso      1.000000  Mo       
         Mo        1.0       0.391454  0.242320  0.500000  Biso      1.000000  Mo       
         Mo        1.0       0.322988  0.244359  0.500000  Biso      1.000000  Mo       
         Mo        1.0       0.254896  0.244677  0.500000  Biso      1.000000  Mo       
         Mo        1.0       0.187684  0.246990  0.500000  Biso      1.000000  Mo       
         S         1.0       0.187684  0.246990  0.950000  Biso      1.000000  S        
         Mo        1.0       0.121964  0.247609  0.500000  Biso      1.000000  Mo       
         Mo        1.0       0.054111  0.250287  0.500000  Biso      1.000000  Mo       
         Mo        1.0       0.964296  0.269063  0.500000  Biso      1.000000  Mo       
         S         1.0       0.964296  0.269063  0.950000  Biso      1.000000  S        
         Mo        1.0       0.898055  0.269412  0.500000  Biso      1.000000  Mo       
         Mo        1.0       0.827939  0.270753  0.500000  Biso      1.000000  Mo       
         Mo        1.0       0.761930  0.270913  0.500000  Biso      1.000000  Mo       
         Mo        1.0       0.695750  0.271856  0.500000  Biso      1.000000  Mo       
         Mo        1.0       0.627985  0.273574  0.500000  Biso      1.000000  Mo       
         Mo        1.0       0.561520  0.274663  0.500000  Biso      1.000000  Mo       
         Mo        1.0       0.492322  0.275660  0.500000  Biso      1.000000  Mo       
         Mo        1.0       0.422778  0.277307  0.500000  Biso      1.000000  Mo       
         Mo        1.0       0.356329  0.278050  0.500000  Biso      1.000000  Mo       
         Mo        1.0       0.287356  0.280104  0.500000  Biso      1.000000  Mo       
         Mo        1.0       0.219032  0.283594  0.500000  Biso      1.000000  Mo       
         S         1.0       0.219032  0.283594  0.950000  Biso      1.000000  S        
         Mo        1.0       0.151392  0.283917  0.500000  Biso      1.000000  Mo       
         Mo        1.0       0.083788  0.285292  0.500000  Biso      1.000000  Mo       
         Mo        1.0       0.931455  0.304591  0.500000  Biso      1.000000  Mo       
         Mo        1.0       0.860798  0.306405  0.500000  Biso      1.000000  Mo       
         S         1.0       0.860798  0.306405  0.950000  Biso      1.000000  S        
         Mo        1.0       0.794397  0.307103  0.500000  Biso      1.000000  Mo       
         Mo        1.0       0.727706  0.308538  0.500000  Biso      1.000000  Mo       
         Mo        1.0       0.660816  0.309897  0.500000  Biso      1.000000  Mo       
         Mo        1.0       0.594070  0.311082  0.500000  Biso      1.000000  Mo       
         Mo        1.0       0.525801  0.312238  0.500000  Biso      1.000000  Mo       
         Mo        1.0       0.456005  0.314638  0.500000  Biso      1.000000  Mo       
         Mo        1.0       0.389160  0.315431  0.500000  Biso      1.000000  Mo       
         Mo        1.0       0.321464  0.316859  0.500000  Biso      1.000000  Mo       
         Mo        1.0       0.252210  0.318263  0.500000  Biso      1.000000  Mo       
         Mo        1.0       0.185226  0.319811  0.500000  Biso      1.000000  Mo       
         Mo        1.0       0.118954  0.319587  0.500000  Biso      1.000000  Mo       
         Mo        1.0       0.048880  0.322514  0.500000  Biso      1.000000  Mo       
         Mo        1.0       0.960461  0.341368  0.500000  Biso      1.000000  Mo       
         Mo        1.0       0.894869  0.342721  0.500000  Biso      1.000000  Mo       
         Mo        1.0       0.826879  0.344713  0.500000  Biso      1.000000  Mo       
         Mo        1.0       0.758846  0.346409  0.500000  Biso      1.000000  Mo       
         Mo        1.0       0.691943  0.346929  0.500000  Biso      1.000000  Mo       
         Mo        1.0       0.625514  0.347832  0.500000  Biso      1.000000  Mo       
         Mo        1.0       0.556946  0.351830  0.500000  Biso      1.000000  Mo       
         Mo        1.0       0.488003  0.350880  0.500000  Biso      1.000000  Mo       
         Mo        1.0       0.420934  0.350857  0.500000  Biso      1.000000  Mo       
         Mo        1.0       0.355129  0.351254  0.500000  Biso      1.000000  Mo       
         Mo        1.0       0.284360  0.355167  0.500000  Biso      1.000000  Mo       
         Mo        1.0       0.218407  0.354221  0.500000  Biso      1.000000  Mo       
         Mo        1.0       0.151767  0.356899  0.500000  Biso      1.000000  Mo       
         Mo        1.0       0.083098  0.359628  0.500000  Biso      1.000000  Mo       
         Mo        1.0       0.927944  0.377841  0.500000  Biso      1.000000  Mo       
         Mo        1.0       0.858791  0.378831  0.500000  Biso      1.000000  Mo       
         Mo        1.0       0.792086  0.380447  0.500000  Biso      1.000000  Mo       
         Mo        1.0       0.724219  0.383105  0.500000  Biso      1.000000  Mo       
         Mo        1.0       0.657442  0.383460  0.500000  Biso      1.000000  Mo       
         Mo        1.0       0.586874  0.383636  0.500000  Biso      1.000000  Mo       
         Mo        1.0       0.522544  0.384541  0.500000  Biso      1.000000  Mo       
         Mo        1.0       0.450636  0.385968  0.500000  Biso      1.000000  Mo       
         Mo        1.0       0.383928  0.387031  0.500000  Biso      1.000000  Mo       
         Mo        1.0       0.315628  0.389682  0.500000  Biso      1.000000  Mo       
         Mo        1.0       0.248823  0.391348  0.500000  Biso      1.000000  Mo       
         Mo        1.0       0.177837  0.391349  0.500000  Biso      1.000000  Mo       
         Mo        1.0       0.114239  0.393819  0.500000  Biso      1.000000  Mo       
         Mo        1.0       0.045237  0.395809  0.500000  Biso      1.000000  Mo       
         Mo        1.0       0.959211  0.412896  0.500000  Biso      1.000000  Mo       
         Mo        1.0       0.891611  0.414054  0.500000  Biso      1.000000  Mo       
         Mo        1.0       0.822324  0.415660  0.500000  Biso      1.000000  Mo       
         Mo        1.0       0.755893  0.417515  0.500000  Biso      1.000000  Mo       
         Mo        1.0       0.689440  0.419053  0.500000  Biso      1.000000  Mo       
         Mo        1.0       0.622232  0.420318  0.500000  Biso      1.000000  Mo       
         Mo        1.0       0.551862  0.420951  0.500000  Biso      1.000000  Mo       
         Mo        1.0       0.481654  0.423081  0.500000  Biso      1.000000  Mo       
         Mo        1.0       0.413503  0.424799  0.500000  Biso      1.000000  Mo       
         Mo        1.0       0.345938  0.424937  0.500000  Biso      1.000000  Mo       
         Mo        1.0       0.278640  0.426705  0.500000  Biso      1.000000  Mo       
         Mo        1.0       0.214641  0.427189  0.500000  Biso      1.000000  Mo       
         Mo        1.0       0.148952  0.428445  0.500000  Biso      1.000000  Mo       
         Mo        1.0       0.079256  0.430517  0.500000  Biso      1.000000  Mo       
         Mo        1.0       0.921222  0.450951  0.500000  Biso      1.000000  Mo       
         Mo        1.0       0.855540  0.451615  0.500000  Biso      1.000000  Mo       
         S         1.0       0.855540  0.451615  0.950000  Biso      1.000000  S        
         Mo        1.0       0.786492  0.452959  0.500000  Biso      1.000000  Mo       
         Mo        1.0       0.720617  0.454906  0.500000  Biso      1.000000  Mo       
         Mo        1.0       0.651516  0.455605  0.500000  Biso      1.000000  Mo       
         Mo        1.0       0.584919  0.456688  0.500000  Biso      1.000000  Mo       
         Mo        1.0       0.515013  0.457404  0.500000  Biso      1.000000  Mo       
         Mo        1.0       0.447657  0.458682  0.500000  Biso      1.000000  Mo       
         Mo        1.0       0.379551  0.461282  0.500000  Biso      1.000000  Mo       
         Mo        1.0       0.309242  0.462366  0.500000  Biso      1.000000  Mo       
         Mo        1.0       0.243456  0.462820  0.500000  Biso      1.000000  Mo       
         Mo        1.0       0.177283  0.464667  0.500000  Biso      1.000000  Mo       
         Mo        1.0       0.108395  0.465822  0.500000  Biso      1.000000  Mo       
         Mo        1.0       0.037768  0.468768  0.500000  Biso      1.000000  Mo       
         Mo        1.0       0.950033  0.486850  0.500000  Biso      1.000000  Mo       
         Mo        1.0       0.885559  0.487872  0.500000  Biso      1.000000  Mo       
         Mo        1.0       0.818109  0.489497  0.500000  Biso      1.000000  Mo       
         Mo        1.0       0.748768  0.490617  0.500000  Biso      1.000000  Mo       
         Mo        1.0       0.682133  0.491176  0.500000  Biso      1.000000  Mo       
         Mo        1.0       0.614169  0.494523  0.500000  Biso      1.000000  Mo       
         Mo        1.0       0.548534  0.496224  0.500000  Biso      1.000000  Mo       
         Mo        1.0       0.474282  0.495302  0.500000  Biso      1.000000  Mo       
         Mo        1.0       0.416132  0.498373  0.500000  Biso      1.000000  Mo       
         Mo        1.0       0.345038  0.499375  0.500000  Biso      1.000000  Mo       
         Mo        1.0       0.276584  0.499025  0.500000  Biso      1.000000  Mo       
         Mo        1.0       0.210413  0.501022  0.500000  Biso      1.000000  Mo       
         Mo        1.0       0.141962  0.502702  0.500000  Biso      1.000000  Mo       
         Mo        1.0       0.073783  0.503227  0.500000  Biso      1.000000  Mo       
         Mo        1.0       0.916242  0.525319  0.500000  Biso      1.000000  Mo       
         Mo        1.0       0.848833  0.525175  0.500000  Biso      1.000000  Mo       
         Mo        1.0       0.780184  0.528532  0.500000  Biso      1.000000  Mo       
         Mo        1.0       0.712141  0.529193  0.500000  Biso      1.000000  Mo       
         Mo        1.0       0.437266  0.528692  0.500000  Biso      1.000000  Mo       
         Mo        1.0       0.643693  0.530254  0.500000  Biso      1.000000  Mo       
         Mo        1.0       0.572818  0.531248  0.500000  Biso      1.000000  Mo       
         Mo        1.0       0.509422  0.533055  0.500000  Biso      1.000000  Mo       
         Mo        1.0       0.368894  0.534131  0.500000  Biso      1.000000  Mo       
         Mo        1.0       0.304818  0.536669  0.500000  Biso      1.000000  Mo       
         Mo        1.0       0.239632  0.538236  0.500000  Biso      1.000000  Mo       
         S         1.0       0.239632  0.538236  0.950000  Biso      1.000000  S        
         Mo        1.0       0.170295  0.539532  0.500000  Biso      1.000000  Mo       
         Mo        1.0       0.101911  0.541749  0.500000  Biso      1.000000  Mo       
         Mo        1.0       0.034154  0.542939  0.500000  Biso      1.000000  Mo       
         Mo        1.0       0.948196  0.557243  0.500000  Biso      1.000000  Mo       
         Mo        1.0       0.882467  0.558663  0.500000  Biso      1.000000  Mo       
         Mo        1.0       0.814982  0.561962  0.500000  Biso      1.000000  Mo       
         Mo        1.0       0.747360  0.563092  0.500000  Biso      1.000000  Mo       
         Mo        1.0       0.680529  0.564876  0.500000  Biso      1.000000  Mo       
         Mo        1.0       0.611452  0.566070  0.500000  Biso      1.000000  Mo       
         Mo        1.0       0.540082  0.566668  0.500000  Biso      1.000000  Mo       
         Mo        1.0       0.475564  0.567866  0.500000  Biso      1.000000  Mo       
         Mo        1.0       0.406112  0.569221  0.500000  Biso      1.000000  Mo       
         Mo        1.0       0.340503  0.571028  0.500000  Biso      1.000000  Mo       
         Mo        1.0       0.271211  0.572963  0.500000  Biso      1.000000  Mo       
         Mo        1.0       0.204759  0.573613  0.500000  Biso      1.000000  Mo       
         Mo        1.0       0.136159  0.574936  0.500000  Biso      1.000000  Mo       
         Mo        1.0       0.067075  0.577312  0.500000  Biso      1.000000  Mo       
         Mo        1.0       0.916177  0.593724  0.500000  Biso      1.000000  Mo       
         Mo        1.0       0.846261  0.597848  0.500000  Biso      1.000000  Mo       
         Mo        1.0       0.779223  0.599027  0.500000  Biso      1.000000  Mo       
         Mo        1.0       0.710990  0.599974  0.500000  Biso      1.000000  Mo       
         Mo        1.0       0.642779  0.601337  0.500000  Biso      1.000000  Mo       
         Mo        1.0       0.576858  0.603117  0.500000  Biso      1.000000  Mo       
         Mo        1.0       0.505673  0.604193  0.500000  Biso      1.000000  Mo       
         Mo        1.0       0.437033  0.605276  0.500000  Biso      1.000000  Mo       
         Mo        1.0       0.368405  0.607808  0.500000  Biso      1.000000  Mo       
         Mo        1.0       0.300914  0.607434  0.500000  Biso      1.000000  Mo       
         Mo        1.0       0.236743  0.610532  0.500000  Biso      1.000000  Mo       
         Mo        1.0       0.170045  0.611018  0.500000  Biso      1.000000  Mo       
         Mo        1.0       0.101150  0.612955  0.500000  Biso      1.000000  Mo       
         Mo        1.0       0.030782  0.614753  0.500000  Biso      1.000000  Mo       
         Mo        1.0       0.947006  0.629573  0.500000  Biso      1.000000  Mo       
         Mo        1.0       0.880402  0.632153  0.500000  Biso      1.000000  Mo       
         Mo        1.0       0.812457  0.632464  0.500000  Biso      1.000000  Mo       
         Mo        1.0       0.745998  0.634652  0.500000  Biso      1.000000  Mo       
         Mo        1.0       0.675308  0.636443  0.500000  Biso      1.000000  Mo       
         Mo        1.0       0.610379  0.637682  0.500000  Biso      1.000000  Mo       
         Mo        1.0       0.538735  0.639540  0.500000  Biso      1.000000  Mo       
         Mo        1.0       0.470580  0.641518  0.500000  Biso      1.000000  Mo       
         Mo        1.0       0.402937  0.643101  0.500000  Biso      1.000000  Mo       
         Mo        1.0       0.335140  0.644093  0.500000  Biso      1.000000  Mo       
         Mo        1.0       0.268547  0.644570  0.500000  Biso      1.000000  Mo       
         Mo        1.0       0.202245  0.646569  0.500000  Biso      1.000000  Mo       
         Mo        1.0       0.132182  0.647899  0.500000  Biso      1.000000  Mo       
         Mo        1.0       0.062814  0.649623  0.500000  Biso      1.000000  Mo       
         Mo        1.0       0.909708  0.664226  0.500000  Biso      1.000000  Mo       
         Mo        1.0       0.846234  0.667681  0.500000  Biso      1.000000  Mo       
         Mo        1.0       0.776915  0.670348  0.500000  Biso      1.000000  Mo       
         Mo        1.0       0.708088  0.672184  0.500000  Biso      1.000000  Mo       
         Mo        1.0       0.640727  0.673094  0.500000  Biso      1.000000  Mo       
         Mo        1.0       0.573272  0.675017  0.500000  Biso      1.000000  Mo       
         Mo        1.0       0.504191  0.677148  0.500000  Biso      1.000000  Mo       
         Mo        1.0       0.436484  0.679018  0.500000  Biso      1.000000  Mo       
         Mo        1.0       0.367599  0.679847  0.500000  Biso      1.000000  Mo       
         Mo        1.0       0.300325  0.680913  0.500000  Biso      1.000000  Mo       
         Mo        1.0       0.233217  0.682784  0.500000  Biso      1.000000  Mo       
         Mo        1.0       0.165121  0.684863  0.500000  Biso      1.000000  Mo       
         Mo        1.0       0.095362  0.685772  0.500000  Biso      1.000000  Mo       
         Mo        1.0       0.028428  0.686222  0.500000  Biso      1.000000  Mo       
         Mo        1.0       0.944658  0.701220  0.500000  Biso      1.000000  Mo       
         Mo        1.0       0.879590  0.702328  0.500000  Biso      1.000000  Mo       
         Mo        1.0       0.811383  0.705631  0.500000  Biso      1.000000  Mo       
         Mo        1.0       0.743193  0.707340  0.500000  Biso      1.000000  Mo       
         Mo        1.0       0.675186  0.709852  0.500000  Biso      1.000000  Mo       
         Mo        1.0       0.604847  0.710901  0.500000  Biso      1.000000  Mo       
         Mo        1.0       0.538802  0.713223  0.500000  Biso      1.000000  Mo       
         Mo        1.0       0.468939  0.713170  0.500000  Biso      1.000000  Mo       
         Mo        1.0       0.400703  0.715020  0.500000  Biso      1.000000  Mo       
         Mo        1.0       0.331685  0.716325  0.500000  Biso      1.000000  Mo       
         Mo        1.0       0.264882  0.717213  0.500000  Biso      1.000000  Mo       
         Mo        1.0       0.198702  0.718580  0.500000  Biso      1.000000  Mo       
         Mo        1.0       0.130034  0.721326  0.500000  Biso      1.000000  Mo       
         Mo        1.0       0.062743  0.721970  0.500000  Biso      1.000000  Mo       
         Mo        1.0       0.976315  0.736480  0.500000  Biso      1.000000  Mo       
         Mo        1.0       0.908624  0.738681  0.500000  Biso      1.000000  Mo       
         Mo        1.0       0.841388  0.738990  0.500000  Biso      1.000000  Mo       
         Mo        1.0       0.773098  0.741660  0.500000  Biso      1.000000  Mo       
         Mo        1.0       0.705036  0.743116  0.500000  Biso      1.000000  Mo       
         Mo        1.0       0.635668  0.745552  0.500000  Biso      1.000000  Mo       
         Mo        1.0       0.567906  0.746369  0.500000  Biso      1.000000  Mo       
         Mo        1.0       0.505081  0.746668  0.500000  Biso      1.000000  Mo       
         Mo        1.0       0.435291  0.748470  0.500000  Biso      1.000000  Mo       
         Mo        1.0       0.367387  0.748993  0.500000  Biso      1.000000  Mo       
         Mo        1.0       0.297738  0.751371  0.500000  Biso      1.000000  Mo       
         Mo        1.0       0.229990  0.752838  0.500000  Biso      1.000000  Mo       
         Mo        1.0       0.162466  0.753622  0.500000  Biso      1.000000  Mo       
         Mo        1.0       0.096139  0.754335  0.500000  Biso      1.000000  Mo       
         Mo        1.0       0.032191  0.759232  0.500000  Biso      1.000000  Mo       
         Mo        1.0       0.940660  0.773205  0.500000  Biso      1.000000  Mo       
         Mo        1.0       0.874176  0.775444  0.500000  Biso      1.000000  Mo       
         Mo        1.0       0.804137  0.777369  0.500000  Biso      1.000000  Mo       
         Mo        1.0       0.735698  0.778395  0.500000  Biso      1.000000  Mo       
         Mo        1.0       0.668702  0.779582  0.500000  Biso      1.000000  Mo       
         Mo        1.0       0.599049  0.781124  0.500000  Biso      1.000000  Mo       
         Mo        1.0       0.531645  0.783972  0.500000  Biso      1.000000  Mo       
         Mo        1.0       0.467990  0.783604  0.500000  Biso      1.000000  Mo       
         Mo        1.0       0.399963  0.784862  0.500000  Biso      1.000000  Mo       
         Mo        1.0       0.331080  0.786320  0.500000  Biso      1.000000  Mo       
         Mo        1.0       0.261477  0.787829  0.500000  Biso      1.000000  Mo       
         Mo        1.0       0.192215  0.788931  0.500000  Biso      1.000000  Mo       
         Mo        1.0       0.057649  0.788501  0.500000  Biso      1.000000  Mo       
         Mo        1.0       0.125010  0.789487  0.500000  Biso      1.000000  Mo       
         Mo        1.0       0.972524  0.808679  0.500000  Biso      1.000000  Mo       
         Mo        1.0       0.904018  0.810068  0.500000  Biso      1.000000  Mo       
         Mo        1.0       0.836394  0.811407  0.500000  Biso      1.000000  Mo       
         Mo        1.0       0.768595  0.814306  0.500000  Biso      1.000000  Mo       
         Mo        1.0       0.699290  0.816145  0.500000  Biso      1.000000  Mo       
         Mo        1.0       0.631963  0.817117  0.500000  Biso      1.000000  Mo       
         Mo        1.0       0.564041  0.817696  0.500000  Biso      1.000000  Mo       
         Mo        1.0       0.497506  0.818713  0.500000  Biso      1.000000  Mo       
         Mo        1.0       0.429923  0.821434  0.500000  Biso      1.000000  Mo       
         Mo        1.0       0.360512  0.822858  0.500000  Biso      1.000000  Mo       
         Mo        1.0       0.292756  0.822404  0.500000  Biso      1.000000  Mo       
         Mo        1.0       0.224280  0.824491  0.500000  Biso      1.000000  Mo       
         Mo        1.0       0.154407  0.825248  0.500000  Biso      1.000000  Mo       
         Mo        1.0       0.028167  0.831677  0.500000  Biso      1.000000  Mo       
         Mo        1.0       0.936558  0.848220  0.500000  Biso      1.000000  Mo       
         Mo        1.0       0.867909  0.849509  0.500000  Biso      1.000000  Mo       
         Mo        1.0       0.799441  0.852134  0.500000  Biso      1.000000  Mo       
         Mo        1.0       0.732778  0.853475  0.500000  Biso      1.000000  Mo       
         Mo        1.0       0.665186  0.854860  0.500000  Biso      1.000000  Mo       
         Mo        1.0       0.597454  0.855704  0.500000  Biso      1.000000  Mo       
         Mo        1.0       0.531178  0.856676  0.500000  Biso      1.000000  Mo       
         Mo        1.0       0.460997  0.857330  0.500000  Biso      1.000000  Mo       
         Mo        1.0       0.392680  0.859387  0.500000  Biso      1.000000  Mo       
         Mo        1.0       0.326397  0.860249  0.500000  Biso      1.000000  Mo       
         Mo        1.0       0.257305  0.861051  0.500000  Biso      1.000000  Mo       
         Mo        1.0       0.188429  0.861859  0.500000  Biso      1.000000  Mo       
         Mo        1.0       0.119879  0.861921  0.500000  Biso      1.000000  Mo       
         Mo        1.0       0.055560  0.861981  0.500000  Biso      1.000000  Mo       
         Mo        1.0       0.967932  0.883126  0.500000  Biso      1.000000  Mo       
         Mo        1.0       0.900368  0.883876  0.500000  Biso      1.000000  Mo       
         Mo        1.0       0.830929  0.885284  0.500000  Biso      1.000000  Mo       
         Mo        1.0       0.764808  0.886530  0.500000  Biso      1.000000  Mo       
         Mo        1.0       0.697174  0.889481  0.500000  Biso      1.000000  Mo       
         Mo        1.0       0.627408  0.890621  0.500000  Biso      1.000000  Mo       
         Mo        1.0       0.561541  0.891723  0.500000  Biso      1.000000  Mo       
         Mo        1.0       0.493107  0.893443  0.500000  Biso      1.000000  Mo       
         Mo        1.0       0.425795  0.893730  0.500000  Biso      1.000000  Mo       
         Mo        1.0       0.356645  0.894616  0.500000  Biso      1.000000  Mo       
         Mo        1.0       0.287924  0.895924  0.500000  Biso      1.000000  Mo       
         Mo        1.0       0.221035  0.897487  0.500000  Biso      1.000000  Mo       
         Mo        1.0       0.153536  0.899627  0.500000  Biso      1.000000  Mo       
         Mo        1.0       0.086488  0.900124  0.500000  Biso      1.000000  Mo       
         Mo        1.0       0.020905  0.902036  0.500000  Biso      1.000000  Mo       
         Mo        1.0       0.934730  0.919729  0.500000  Biso      1.000000  Mo       
         Mo        1.0       0.865984  0.920159  0.500000  Biso      1.000000  Mo       
         Mo        1.0       0.797316  0.922932  0.500000  Biso      1.000000  Mo       
         Mo        1.0       0.730246  0.923735  0.500000  Biso      1.000000  Mo       
         Mo        1.0       0.662217  0.924642  0.500000  Biso      1.000000  Mo       
         Mo        1.0       0.593466  0.927318  0.500000  Biso      1.000000  Mo       
         Mo        1.0       0.526709  0.928260  0.500000  Biso      1.000000  Mo       
         Mo        1.0       0.457228  0.930317  0.500000  Biso      1.000000  Mo       
         Mo        1.0       0.388995  0.932868  0.500000  Biso      1.000000  Mo       
         Mo        1.0       0.323249  0.932440  0.500000  Biso      1.000000  Mo       
         Mo        1.0       0.252040  0.933762  0.500000  Biso      1.000000  Mo       
         Mo        1.0       0.186680  0.936253  0.500000  Biso      1.000000  Mo       
         Mo        1.0       0.120200  0.936446  0.500000  Biso      1.000000  Mo       
         Mo        1.0       0.051735  0.938754  0.500000  Biso      1.000000  Mo       
         Mo        1.0       0.966859  0.953324  0.500000  Biso      1.000000  Mo       
         S         1.0       0.966859  0.953324  0.950000  Biso      1.000000  S        
         Mo        1.0       0.897624  0.956877  0.500000  Biso      1.000000  Mo       
         Mo        1.0       0.832997  0.957199  0.500000  Biso      1.000000  Mo       
         Mo        1.0       0.762294  0.960026  0.500000  Biso      1.000000  Mo       
         Mo        1.0       0.694043  0.961357  0.500000  Biso      1.000000  Mo       
         Mo        1.0       0.626865  0.965738  0.500000  Biso      1.000000  Mo       
         Mo        1.0       0.559428  0.965295  0.500000  Biso      1.000000  Mo       
         Mo        1.0       0.492403  0.966812  0.500000  Biso      1.000000  Mo       
         Mo        1.0       0.356534  0.966481  0.500000  Biso      1.000000  Mo       
         Mo        1.0       0.422584  0.967896  0.500000  Biso      1.000000  Mo       
         Mo        1.0       0.288843  0.969459  0.500000  Biso      1.000000  Mo       
         Mo        1.0       0.220368  0.971280  0.500000  Biso      1.000000  Mo       
         Mo        1.0       0.154924  0.971719  0.500000  Biso      1.000000  Mo       
         Mo        1.0       0.086409  0.972175  0.500000  Biso      1.000000  Mo       
         Mo        1.0       0.088674  0.826817  0.500000  Biso      1.000000  Mo       
         S         1.0       0.967578  0.906270  0.242000  Biso      1.000000  S        
         S         1.0       0.967578  0.906270  0.757000  Biso      1.000000  S        
         S         1.0       0.971010  0.833224  0.242000  Biso      1.000000  S        
         S         1.0       0.971010  0.833224  0.757000  Biso      1.000000  S        
         S         1.0       0.977212  0.761758  0.242000  Biso      1.000000  S        
         S         1.0       0.977212  0.761758  0.757000  Biso      1.000000  S        
         S         1.0       0.933948  0.869995  0.242000  Biso      1.000000  S        
         S         1.0       0.933948  0.869995  0.757000  Biso      1.000000  S        
         S         1.0       0.938583  0.796743  0.242000  Biso      1.000000  S        
         S         1.0       0.938583  0.796743  0.757000  Biso      1.000000  S        
         S         1.0       0.944446  0.724329  0.242000  Biso      1.000000  S        
         S         1.0       0.944446  0.724329  0.757000  Biso      1.000000  S        
         S         1.0       0.946232  0.653195  0.242000  Biso      1.000000  S        
         S         1.0       0.946232  0.653195  0.757000  Biso      1.000000  S        
         S         1.0       0.947804  0.581090  0.242000  Biso      1.000000  S        
         S         1.0       0.947804  0.581090  0.757000  Biso      1.000000  S        
         S         1.0       0.949427  0.510059  0.242000  Biso      1.000000  S        
         S         1.0       0.949427  0.510059  0.757000  Biso      1.000000  S        
         S         1.0       0.956185  0.437279  0.242000  Biso      1.000000  S        
         S         1.0       0.956185  0.437279  0.757000  Biso      1.000000  S        
         S         1.0       0.960049  0.364951  0.242000  Biso      1.000000  S        
         S         1.0       0.960049  0.364951  0.757000  Biso      1.000000  S        
         S         1.0       0.963032  0.292902  0.242000  Biso      1.000000  S        
         S         1.0       0.963032  0.292902  0.757000  Biso      1.000000  S        
         S         1.0       0.968091  0.219995  0.242000  Biso      1.000000  S        
         S         1.0       0.968091  0.219995  0.757000  Biso      1.000000  S        
         S         1.0       0.970879  0.146399  0.242000  Biso      1.000000  S        
         S         1.0       0.970879  0.146399  0.757000  Biso      1.000000  S        
         S         1.0       0.973511  0.076786  0.242000  Biso      1.000000  S        
         S         1.0       0.973511  0.076786  0.757000  Biso      1.000000  S        
         S         1.0       0.901322  0.906154  0.242000  Biso      1.000000  S        
         S         1.0       0.901322  0.906154  0.757000  Biso      1.000000  S        
         S         1.0       0.902466  0.833615  0.242000  Biso      1.000000  S        
         S         1.0       0.902466  0.833615  0.757000  Biso      1.000000  S        
         S         1.0       0.909114  0.761692  0.242000  Biso      1.000000  S        
         S         1.0       0.909114  0.761692  0.757000  Biso      1.000000  S        
         S         1.0       0.907836  0.691210  0.242000  Biso      1.000000  S        
         S         1.0       0.907836  0.691210  0.757000  Biso      1.000000  S        
         S         1.0       0.914626  0.618305  0.242000  Biso      1.000000  S        
         S         1.0       0.914626  0.618305  0.757000  Biso      1.000000  S        
         Se        1.0       0.913979  0.547097  0.242000  Biso      1.000000  Se       
         S         1.0       0.913979  0.547097  0.757000  Biso      1.000000  S        
         S         1.0       0.917814  0.475683  0.242000  Biso      1.000000  S        
         S         1.0       0.917814  0.475683  0.757000  Biso      1.000000  S        
         S         1.0       0.927748  0.401048  0.242000  Biso      1.000000  S        
         S         1.0       0.927748  0.401048  0.757000  Biso      1.000000  S        
         S         1.0       0.929304  0.328332  0.242000  Biso      1.000000  S        
         S         1.0       0.929304  0.328332  0.757000  Biso      1.000000  S        
         S         1.0       0.932343  0.260131  0.242000  Biso      1.000000  S        
         S         1.0       0.932343  0.260131  0.757000  Biso      1.000000  S        
         S         1.0       0.936210  0.184509  0.242000  Biso      1.000000  S        
         S         1.0       0.936210  0.184509  0.757000  Biso      1.000000  S        
         S         1.0       0.938428  0.113098  0.242000  Biso      1.000000  S        
         S         1.0       0.938428  0.113098  0.757000  Biso      1.000000  S        
         S         1.0       0.941930  0.041120  0.242000  Biso      1.000000  S        
         S         1.0       0.941930  0.041120  0.757000  Biso      1.000000  S        
         S         1.0       0.865220  0.873011  0.242000  Biso      1.000000  S        
         S         1.0       0.865220  0.873011  0.757000  Biso      1.000000  S        
         S         1.0       0.873158  0.798933  0.242000  Biso      1.000000  S        
         S         1.0       0.873158  0.798933  0.757000  Biso      1.000000  S        
         S         1.0       0.874842  0.724644  0.242000  Biso      1.000000  S        
         S         1.0       0.874842  0.724644  0.757000  Biso      1.000000  S        
         Se        1.0       0.879201  0.654053  0.757000  Biso      1.000000  Se       
         S         1.0       0.880525  0.584251  0.242000  Biso      1.000000  S        
         S         1.0       0.880525  0.584251  0.757000  Biso      1.000000  S        
         S         1.0       0.884090  0.510629  0.757000  Biso      1.000000  S        
         S         1.0       0.888807  0.440270  0.242000  Biso      1.000000  S        
         S         1.0       0.888807  0.440270  0.757000  Biso      1.000000  S        
         S         1.0       0.894087  0.366069  0.242000  Biso      1.000000  S        
         S         1.0       0.894087  0.366069  0.757000  Biso      1.000000  S        
         S         1.0       0.896476  0.292949  0.242000  Biso      1.000000  S        
         S         1.0       0.896476  0.292949  0.757000  Biso      1.000000  S        
         S         1.0       0.899541  0.221947  0.242000  Biso      1.000000  S        
         S         1.0       0.899541  0.221947  0.757000  Biso      1.000000  S        
         S         1.0       0.904525  0.146983  0.242000  Biso      1.000000  S        
         S         1.0       0.904525  0.146983  0.757000  Biso      1.000000  S        
         S         1.0       0.901894  0.075946  0.242000  Biso      1.000000  S        
         S         1.0       0.901894  0.075946  0.757000  Biso      1.000000  S        
         S         1.0       0.829773  0.907452  0.242000  Biso      1.000000  S        
         S         1.0       0.829773  0.907452  0.757000  Biso      1.000000  S        
         S         1.0       0.834142  0.837417  0.242000  Biso      1.000000  S        
         S         1.0       0.834142  0.837417  0.757000  Biso      1.000000  S        
         S         1.0       0.839324  0.762623  0.242000  Biso      1.000000  S        
         S         1.0       0.839324  0.762623  0.757000  Biso      1.000000  S        
         S         1.0       0.847022  0.691769  0.242000  Biso      1.000000  S        
         S         1.0       0.847022  0.691769  0.757000  Biso      1.000000  S        
         S         1.0       0.845978  0.617974  0.242000  Biso      1.000000  S        
         S         1.0       0.845978  0.617974  0.757000  Biso      1.000000  S        
         S         1.0       0.851184  0.548842  0.242000  Biso      1.000000  S        
         S         1.0       0.851184  0.548842  0.757000  Biso      1.000000  S        
         S         1.0       0.852212  0.477232  0.242000  Biso      1.000000  S        
         S         1.0       0.852212  0.477232  0.757000  Biso      1.000000  S        
         S         1.0       0.859573  0.402862  0.242000  Biso      1.000000  S        
         S         1.0       0.859573  0.402862  0.757000  Biso      1.000000  S        
         S         1.0       0.862247  0.329601  0.242000  Biso      1.000000  S        
         S         1.0       0.862247  0.329601  0.757000  Biso      1.000000  S        
         S         1.0       0.863851  0.256608  0.242000  Biso      1.000000  S        
         S         1.0       0.863851  0.256608  0.757000  Biso      1.000000  S        
         S         1.0       0.870572  0.182859  0.242000  Biso      1.000000  S        
         S         1.0       0.870572  0.182859  0.757000  Biso      1.000000  S        
         S         1.0       0.871052  0.110070  0.242000  Biso      1.000000  S        
         S         1.0       0.871052  0.110070  0.757000  Biso      1.000000  S        
         S         1.0       0.875450  0.038279  0.242000  Biso      1.000000  S        
         S         1.0       0.875450  0.038279  0.757000  Biso      1.000000  S        
         S         1.0       0.798719  0.876014  0.242000  Biso      1.000000  S        
         S         1.0       0.798719  0.876014  0.757000  Biso      1.000000  S        
         Se        1.0       0.802302  0.800322  0.757000  Biso      1.000000  Se       
         S         1.0       0.809311  0.727882  0.242000  Biso      1.000000  S        
         S         1.0       0.809311  0.727882  0.757000  Biso      1.000000  S        
         S         1.0       0.811572  0.656838  0.242000  Biso      1.000000  S        
         S         1.0       0.811572  0.656838  0.757000  Biso      1.000000  S        
         S         1.0       0.814725  0.585060  0.242000  Biso      1.000000  S        
         S         1.0       0.814725  0.585060  0.757000  Biso      1.000000  S        
         S         1.0       0.818448  0.513957  0.242000  Biso      1.000000  S        
         S         1.0       0.818448  0.513957  0.757000  Biso      1.000000  S        
         S         1.0       0.823711  0.440139  0.242000  Biso      1.000000  S        
         S         1.0       0.823711  0.440139  0.757000  Biso      1.000000  S        
         S         1.0       0.824486  0.367171  0.242000  Biso      1.000000  S        
         S         1.0       0.824486  0.367171  0.757000  Biso      1.000000  S        
         S         1.0       0.828563  0.293774  0.242000  Biso      1.000000  S        
         S         1.0       0.828563  0.293774  0.757000  Biso      1.000000  S        
         S         1.0       0.829116  0.222732  0.242000  Biso      1.000000  S        
         S         1.0       0.829116  0.222732  0.757000  Biso      1.000000  S        
         S         1.0       0.837531  0.148881  0.242000  Biso      1.000000  S        
         S         1.0       0.837531  0.148881  0.757000  Biso      1.000000  S        
         S         1.0       0.843616  0.074460  0.242000  Biso      1.000000  S        
         S         1.0       0.843616  0.074460  0.757000  Biso      1.000000  S        
         S         1.0       0.763979  0.910762  0.757000  Biso      1.000000  S        
         S         1.0       0.767173  0.839427  0.242000  Biso      1.000000  S        
         S         1.0       0.767173  0.839427  0.757000  Biso      1.000000  S        
         S         1.0       0.775518  0.764218  0.242000  Biso      1.000000  S        
         S         1.0       0.775518  0.764218  0.757000  Biso      1.000000  S        
         S         1.0       0.774302  0.693361  0.242000  Biso      1.000000  S        
         S         1.0       0.774302  0.693361  0.757000  Biso      1.000000  S        
         S         1.0       0.778860  0.621633  0.242000  Biso      1.000000  S        
         S         1.0       0.778860  0.621633  0.757000  Biso      1.000000  S        
         S         1.0       0.781617  0.550517  0.242000  Biso      1.000000  S        
         S         1.0       0.781617  0.550517  0.757000  Biso      1.000000  S        
         S         1.0       0.784831  0.476372  0.242000  Biso      1.000000  S        
         S         1.0       0.784831  0.476372  0.757000  Biso      1.000000  S        
         S         1.0       0.791656  0.405468  0.242000  Biso      1.000000  S        
         S         1.0       0.791656  0.405468  0.757000  Biso      1.000000  S        
         S         1.0       0.792916  0.333429  0.242000  Biso      1.000000  S        
         S         1.0       0.792916  0.333429  0.757000  Biso      1.000000  S        
         S         1.0       0.797888  0.257297  0.242000  Biso      1.000000  S        
         S         1.0       0.797888  0.257297  0.757000  Biso      1.000000  S        
         S         1.0       0.802135  0.184584  0.242000  Biso      1.000000  S        
         S         1.0       0.802135  0.184584  0.757000  Biso      1.000000  S        
         S         1.0       0.806559  0.112225  0.242000  Biso      1.000000  S        
         S         1.0       0.806559  0.112225  0.757000  Biso      1.000000  S        
         S         1.0       0.809206  0.039644  0.242000  Biso      1.000000  S        
         S         1.0       0.809206  0.039644  0.757000  Biso      1.000000  S        
         S         1.0       0.737411  0.877200  0.242000  Biso      1.000000  S        
         S         1.0       0.737411  0.877200  0.757000  Biso      1.000000  S        
         S         1.0       0.735019  0.801446  0.242000  Biso      1.000000  S        
         S         1.0       0.735019  0.801446  0.757000  Biso      1.000000  S        
         S         1.0       0.740684  0.732060  0.242000  Biso      1.000000  S        
         S         1.0       0.740684  0.732060  0.757000  Biso      1.000000  S        
         S         1.0       0.746152  0.658392  0.242000  Biso      1.000000  S        
         S         1.0       0.746152  0.658392  0.757000  Biso      1.000000  S        
         S         1.0       0.746030  0.586605  0.242000  Biso      1.000000  S        
         S         1.0       0.746030  0.586605  0.757000  Biso      1.000000  S        
         S         1.0       0.748764  0.514567  0.242000  Biso      1.000000  S        
         S         1.0       0.748764  0.514567  0.757000  Biso      1.000000  S        
         S         1.0       0.752924  0.444004  0.242000  Biso      1.000000  S        
         S         1.0       0.752924  0.444004  0.757000  Biso      1.000000  S        
         S         1.0       0.758298  0.368067  0.242000  Biso      1.000000  S        
         S         1.0       0.758298  0.368067  0.757000  Biso      1.000000  S        
         S         1.0       0.761721  0.294688  0.242000  Biso      1.000000  S        
         S         1.0       0.761721  0.294688  0.757000  Biso      1.000000  S        
         S         1.0       0.767159  0.220637  0.242000  Biso      1.000000  S        
         S         1.0       0.767159  0.220637  0.757000  Biso      1.000000  S        
         S         1.0       0.769240  0.150613  0.242000  Biso      1.000000  S        
         S         1.0       0.769240  0.150613  0.757000  Biso      1.000000  S        
         S         1.0       0.771428  0.078509  0.242000  Biso      1.000000  S        
         S         1.0       0.771428  0.078509  0.757000  Biso      1.000000  S        
         S         1.0       0.699219  0.913414  0.242000  Biso      1.000000  S        
         S         1.0       0.699219  0.913414  0.757000  Biso      1.000000  S        
         S         1.0       0.696061  0.841075  0.242000  Biso      1.000000  S        
         S         1.0       0.696061  0.841075  0.757000  Biso      1.000000  S        
         S         1.0       0.704713  0.765826  0.242000  Biso      1.000000  S        
         S         1.0       0.704713  0.765826  0.757000  Biso      1.000000  S        
         S         1.0       0.705456  0.694259  0.242000  Biso      1.000000  S        
         S         1.0       0.705456  0.694259  0.757000  Biso      1.000000  S        
         S         1.0       0.711666  0.622647  0.242000  Biso      1.000000  S        
         S         1.0       0.711666  0.622647  0.757000  Biso      1.000000  S        
         S         1.0       0.713282  0.551644  0.242000  Biso      1.000000  S        
         S         1.0       0.713282  0.551644  0.757000  Biso      1.000000  S        
         S         1.0       0.723718  0.480945  0.242000  Biso      1.000000  S        
         S         1.0       0.723718  0.480945  0.757000  Biso      1.000000  S        
         S         1.0       0.722185  0.405633  0.242000  Biso      1.000000  S        
         S         1.0       0.722185  0.405633  0.757000  Biso      1.000000  S        
         S         1.0       0.725064  0.334105  0.242000  Biso      1.000000  S        
         S         1.0       0.725064  0.334105  0.757000  Biso      1.000000  S        
         S         1.0       0.731227  0.259851  0.242000  Biso      1.000000  S        
         S         1.0       0.731227  0.259851  0.757000  Biso      1.000000  S        
         S         1.0       0.734382  0.188055  0.242000  Biso      1.000000  S        
         S         1.0       0.734382  0.188055  0.757000  Biso      1.000000  S        
         S         1.0       0.736390  0.113149  0.242000  Biso      1.000000  S        
         S         1.0       0.736390  0.113149  0.757000  Biso      1.000000  S        
         S         1.0       0.743581  0.040081  0.242000  Biso      1.000000  S        
         S         1.0       0.743581  0.040081  0.757000  Biso      1.000000  S        
         S         1.0       0.662765  0.877603  0.242000  Biso      1.000000  S        
         S         1.0       0.662765  0.877603  0.757000  Biso      1.000000  S        
         S         1.0       0.664344  0.803335  0.242000  Biso      1.000000  S        
         S         1.0       0.664344  0.803335  0.757000  Biso      1.000000  S        
         S         1.0       0.672922  0.730662  0.242000  Biso      1.000000  S        
         S         1.0       0.672922  0.730662  0.757000  Biso      1.000000  S        
         S         1.0       0.674093  0.660187  0.242000  Biso      1.000000  S        
         S         1.0       0.674093  0.660187  0.757000  Biso      1.000000  S        
         S         1.0       0.677219  0.588579  0.242000  Biso      1.000000  S        
         S         1.0       0.677219  0.588579  0.757000  Biso      1.000000  S        
         S         1.0       0.680233  0.516736  0.242000  Biso      1.000000  S        
         S         1.0       0.680233  0.516736  0.757000  Biso      1.000000  S        
         S         1.0       0.686022  0.444309  0.242000  Biso      1.000000  S        
         S         1.0       0.686022  0.444309  0.757000  Biso      1.000000  S        
         S         1.0       0.690819  0.371880  0.242000  Biso      1.000000  S        
         S         1.0       0.690819  0.371880  0.757000  Biso      1.000000  S        
         S         1.0       0.694922  0.294726  0.242000  Biso      1.000000  S        
         S         1.0       0.694922  0.294726  0.757000  Biso      1.000000  S        
         S         1.0       0.698790  0.222476  0.242000  Biso      1.000000  S        
         S         1.0       0.698790  0.222476  0.757000  Biso      1.000000  S        
         S         1.0       0.702003  0.150539  0.242000  Biso      1.000000  S        
         S         1.0       0.702003  0.150539  0.757000  Biso      1.000000  S        
         S         1.0       0.707984  0.079155  0.242000  Biso      1.000000  S        
         S         1.0       0.707984  0.079155  0.757000  Biso      1.000000  S        
         S         1.0       0.629283  0.914487  0.242000  Biso      1.000000  S        
         S         1.0       0.629283  0.914487  0.757000  Biso      1.000000  S        
         S         1.0       0.631276  0.841407  0.242000  Biso      1.000000  S        
         S         1.0       0.631276  0.841407  0.757000  Biso      1.000000  S        
         S         1.0       0.633651  0.767786  0.242000  Biso      1.000000  S        
         S         1.0       0.633651  0.767786  0.757000  Biso      1.000000  S        
         S         1.0       0.638881  0.697128  0.242000  Biso      1.000000  S        
         S         1.0       0.638881  0.697128  0.757000  Biso      1.000000  S        
         S         1.0       0.642953  0.625445  0.242000  Biso      1.000000  S        
         S         1.0       0.642953  0.625445  0.757000  Biso      1.000000  S        
         S         1.0       0.644258  0.554794  0.242000  Biso      1.000000  S        
         S         1.0       0.644258  0.554794  0.757000  Biso      1.000000  S        
         S         1.0       0.649029  0.478591  0.242000  Biso      1.000000  S        
         S         1.0       0.649029  0.478591  0.757000  Biso      1.000000  S        
         S         1.0       0.653305  0.406721  0.242000  Biso      1.000000  S        
         S         1.0       0.653305  0.406721  0.757000  Biso      1.000000  S        
         S         1.0       0.657364  0.335151  0.242000  Biso      1.000000  S        
         S         1.0       0.657364  0.335151  0.757000  Biso      1.000000  S        
         S         1.0       0.661987  0.260082  0.242000  Biso      1.000000  S        
         S         1.0       0.661987  0.260082  0.757000  Biso      1.000000  S        
         S         1.0       0.668252  0.189096  0.242000  Biso      1.000000  S        
         S         1.0       0.668252  0.189096  0.757000  Biso      1.000000  S        
         S         1.0       0.670640  0.114280  0.242000  Biso      1.000000  S        
         S         1.0       0.670640  0.114280  0.757000  Biso      1.000000  S        
         S         1.0       0.674110  0.041862  0.242000  Biso      1.000000  S        
         S         1.0       0.674110  0.041862  0.757000  Biso      1.000000  S        
         S         1.0       0.588649  0.880642  0.242000  Biso      1.000000  S        
         S         1.0       0.588649  0.880642  0.757000  Biso      1.000000  S        
         S         1.0       0.596222  0.805340  0.242000  Biso      1.000000  S        
         S         1.0       0.596222  0.805340  0.757000  Biso      1.000000  S        
         S         1.0       0.597836  0.732192  0.242000  Biso      1.000000  S        
         S         1.0       0.597836  0.732192  0.757000  Biso      1.000000  S        
         S         1.0       0.608766  0.662641  0.242000  Biso      1.000000  S        
         S         1.0       0.608766  0.662641  0.757000  Biso      1.000000  S        
         S         1.0       0.613147  0.589374  0.242000  Biso      1.000000  S        
         S         1.0       0.613147  0.589374  0.757000  Biso      1.000000  S        
         S         1.0       0.614547  0.517033  0.242000  Biso      1.000000  S        
         S         1.0       0.614547  0.517033  0.757000  Biso      1.000000  S        
         S         1.0       0.621443  0.444334  0.242000  Biso      1.000000  S        
         S         1.0       0.621443  0.444334  0.757000  Biso      1.000000  S        
         S         1.0       0.623378  0.371765  0.242000  Biso      1.000000  S        
         S         1.0       0.623378  0.371765  0.757000  Biso      1.000000  S        
         S         1.0       0.624003  0.298133  0.242000  Biso      1.000000  S        
         S         1.0       0.624003  0.298133  0.757000  Biso      1.000000  S        
         S         1.0       0.628970  0.225732  0.242000  Biso      1.000000  S        
         S         1.0       0.628970  0.225732  0.757000  Biso      1.000000  S        
         S         1.0       0.634219  0.151306  0.242000  Biso      1.000000  S        
         S         1.0       0.634219  0.151306  0.757000  Biso      1.000000  S        
         S         1.0       0.638966  0.079803  0.242000  Biso      1.000000  S        
         S         1.0       0.638966  0.079803  0.757000  Biso      1.000000  S        
         S         1.0       0.557812  0.915159  0.242000  Biso      1.000000  S        
         S         1.0       0.557812  0.915159  0.757000  Biso      1.000000  S        
         S         1.0       0.561226  0.843488  0.242000  Biso      1.000000  S        
         S         1.0       0.561226  0.843488  0.757000  Biso      1.000000  S        
         S         1.0       0.564986  0.769675  0.242000  Biso      1.000000  S        
         S         1.0       0.564986  0.769675  0.757000  Biso      1.000000  S        
         S         1.0       0.573800  0.699153  0.242000  Biso      1.000000  S        
         S         1.0       0.573800  0.699153  0.757000  Biso      1.000000  S        
         S         1.0       0.574192  0.626705  0.242000  Biso      1.000000  S        
         S         1.0       0.574192  0.626705  0.757000  Biso      1.000000  S        
         S         1.0       0.577412  0.553327  0.242000  Biso      1.000000  S        
         S         1.0       0.577412  0.553327  0.757000  Biso      1.000000  S        
         Se        1.0       0.579722  0.484567  0.757000  Biso      1.000000  Se       
         S         1.0       0.585549  0.407123  0.242000  Biso      1.000000  S        
         S         1.0       0.585549  0.407123  0.757000  Biso      1.000000  S        
         S         1.0       0.593921  0.335604  0.242000  Biso      1.000000  S        
         S         1.0       0.593921  0.335604  0.757000  Biso      1.000000  S        
         S         1.0       0.598902  0.265381  0.242000  Biso      1.000000  S        
         S         1.0       0.598902  0.265381  0.757000  Biso      1.000000  S        
         S         1.0       0.599509  0.189875  0.242000  Biso      1.000000  S        
         S         1.0       0.599509  0.189875  0.757000  Biso      1.000000  S        
         S         1.0       0.600040  0.116630  0.242000  Biso      1.000000  S        
         S         1.0       0.600040  0.116630  0.757000  Biso      1.000000  S        
         S         1.0       0.610452  0.041833  0.242000  Biso      1.000000  S        
         S         1.0       0.610452  0.041833  0.757000  Biso      1.000000  S        
         S         1.0       0.531141  0.880966  0.242000  Biso      1.000000  S        
         S         1.0       0.531141  0.880966  0.757000  Biso      1.000000  S        
         S         1.0       0.531276  0.808376  0.242000  Biso      1.000000  S        
         S         1.0       0.531276  0.808376  0.757000  Biso      1.000000  S        
         Se        1.0       0.534059  0.734750  0.242000  Biso      1.000000  Se       
         S         1.0       0.534059  0.734750  0.757000  Biso      1.000000  S        
         S         1.0       0.539673  0.665539  0.242000  Biso      1.000000  S        
         S         1.0       0.539673  0.665539  0.757000  Biso      1.000000  S        
         S         1.0       0.542533  0.589150  0.242000  Biso      1.000000  S        
         S         1.0       0.542533  0.589150  0.757000  Biso      1.000000  S        
         Se        1.0       0.545088  0.519208  0.242000  Biso      1.000000  Se       
         S         1.0       0.545088  0.519208  0.757000  Biso      1.000000  S        
         S         1.0       0.549357  0.445213  0.242000  Biso      1.000000  S        
         S         1.0       0.549357  0.445213  0.757000  Biso      1.000000  S        
         Se        1.0       0.553836  0.373896  0.242000  Biso      1.000000  Se       
         S         1.0       0.553836  0.373896  0.757000  Biso      1.000000  S        
         S         1.0       0.558316  0.297457  0.242000  Biso      1.000000  S        
         S         1.0       0.558316  0.297457  0.757000  Biso      1.000000  S        
         S         1.0       0.564266  0.226650  0.242000  Biso      1.000000  S        
         S         1.0       0.564266  0.226650  0.757000  Biso      1.000000  S        
         S         1.0       0.565967  0.152821  0.242000  Biso      1.000000  S        
         S         1.0       0.565967  0.152821  0.757000  Biso      1.000000  S        
         S         1.0       0.568327  0.082412  0.242000  Biso      1.000000  S        
         S         1.0       0.568327  0.082412  0.757000  Biso      1.000000  S        
         S         1.0       0.494044  0.917090  0.242000  Biso      1.000000  S        
         S         1.0       0.494044  0.917090  0.757000  Biso      1.000000  S        
         S         1.0       0.494893  0.842771  0.242000  Biso      1.000000  S        
         S         1.0       0.494893  0.842771  0.757000  Biso      1.000000  S        
         S         1.0       0.499018  0.771694  0.242000  Biso      1.000000  S        
         S         1.0       0.499018  0.771694  0.757000  Biso      1.000000  S        
         S         1.0       0.506244  0.700772  0.242000  Biso      1.000000  S        
         S         1.0       0.506244  0.700772  0.757000  Biso      1.000000  S        
         S         1.0       0.503183  0.628241  0.242000  Biso      1.000000  S        
         S         1.0       0.503183  0.628241  0.757000  Biso      1.000000  S        
         Se        1.0       0.508392  0.555470  0.242000  Biso      1.000000  Se       
         S         1.0       0.508392  0.555470  0.757000  Biso      1.000000  S        
         S         1.0       0.510742  0.481649  0.242000  Biso      1.000000  S        
         S         1.0       0.510742  0.481649  0.757000  Biso      1.000000  S        
         S         1.0       0.518243  0.407382  0.242000  Biso      1.000000  S        
         S         1.0       0.518243  0.407382  0.757000  Biso      1.000000  S        
         S         1.0       0.523524  0.337524  0.242000  Biso      1.000000  S        
         S         1.0       0.523524  0.337524  0.757000  Biso      1.000000  S        
         S         1.0       0.530419  0.263014  0.242000  Biso      1.000000  S        
         S         1.0       0.530419  0.263014  0.757000  Biso      1.000000  S        
         S         1.0       0.533107  0.189846  0.242000  Biso      1.000000  S        
         S         1.0       0.533107  0.189846  0.757000  Biso      1.000000  S        
         S         1.0       0.531790  0.118899  0.242000  Biso      1.000000  S        
         S         1.0       0.531790  0.118899  0.757000  Biso      1.000000  S        
         S         1.0       0.538624  0.044560  0.242000  Biso      1.000000  S        
         S         1.0       0.538624  0.044560  0.757000  Biso      1.000000  S        
         S         1.0       0.462245  0.882729  0.242000  Biso      1.000000  S        
         S         1.0       0.462245  0.882729  0.757000  Biso      1.000000  S        
         S         1.0       0.466667  0.807731  0.242000  Biso      1.000000  S        
         S         1.0       0.466667  0.807731  0.757000  Biso      1.000000  S        
         S         1.0       0.468008  0.736081  0.242000  Biso      1.000000  S        
         S         1.0       0.468008  0.736081  0.757000  Biso      1.000000  S        
         S         1.0       0.468420  0.665755  0.242000  Biso      1.000000  S        
         S         1.0       0.468420  0.665755  0.757000  Biso      1.000000  S        
         S         1.0       0.473235  0.590370  0.242000  Biso      1.000000  S        
         S         1.0       0.473235  0.590370  0.757000  Biso      1.000000  S        
         S         1.0       0.474705  0.519226  0.242000  Biso      1.000000  S        
         S         1.0       0.474705  0.519226  0.757000  Biso      1.000000  S        
         S         1.0       0.483053  0.446225  0.242000  Biso      1.000000  S        
         S         1.0       0.483053  0.446225  0.757000  Biso      1.000000  S        
         S         1.0       0.487539  0.373720  0.242000  Biso      1.000000  S        
         S         1.0       0.487539  0.373720  0.757000  Biso      1.000000  S        
         S         1.0       0.491787  0.299087  0.242000  Biso      1.000000  S        
         S         1.0       0.491787  0.299087  0.757000  Biso      1.000000  S        
         S         1.0       0.495568  0.227611  0.242000  Biso      1.000000  S        
         S         1.0       0.495568  0.227611  0.757000  Biso      1.000000  S        
         S         1.0       0.498093  0.154209  0.757000  Biso      1.000000  S        
         S         1.0       0.502134  0.082498  0.242000  Biso      1.000000  S        
         S         1.0       0.502134  0.082498  0.757000  Biso      1.000000  S        
         S         1.0       0.424902  0.916972  0.242000  Biso      1.000000  S        
         S         1.0       0.424902  0.916972  0.757000  Biso      1.000000  S        
         S         1.0       0.429163  0.842366  0.242000  Biso      1.000000  S        
         S         1.0       0.429163  0.842366  0.757000  Biso      1.000000  S        
         S         1.0       0.435905  0.772523  0.242000  Biso      1.000000  S        
         S         1.0       0.435905  0.772523  0.757000  Biso      1.000000  S        
         S         1.0       0.433386  0.701780  0.242000  Biso      1.000000  S        
         S         1.0       0.433386  0.701780  0.757000  Biso      1.000000  S        
         S         1.0       0.436536  0.630165  0.242000  Biso      1.000000  S        
         S         1.0       0.436536  0.630165  0.757000  Biso      1.000000  S        
         S         1.0       0.437190  0.553942  0.242000  Biso      1.000000  S        
         S         1.0       0.437190  0.553942  0.757000  Biso      1.000000  S        
         S         1.0       0.444231  0.481765  0.242000  Biso      1.000000  S        
         S         1.0       0.444231  0.481765  0.757000  Biso      1.000000  S        
         S         1.0       0.449255  0.410445  0.242000  Biso      1.000000  S        
         S         1.0       0.449255  0.410445  0.757000  Biso      1.000000  S        
         S         1.0       0.453405  0.338528  0.242000  Biso      1.000000  S        
         S         1.0       0.453405  0.338528  0.757000  Biso      1.000000  S        
         S         1.0       0.457663  0.265499  0.242000  Biso      1.000000  S        
         S         1.0       0.457663  0.265499  0.757000  Biso      1.000000  S        
         S         1.0       0.464586  0.192180  0.242000  Biso      1.000000  S        
         S         1.0       0.464586  0.192180  0.757000  Biso      1.000000  S        
         S         1.0       0.462227  0.119297  0.242000  Biso      1.000000  S        
         S         1.0       0.462227  0.119297  0.757000  Biso      1.000000  S        
         S         1.0       0.471215  0.044822  0.242000  Biso      1.000000  S        
         S         1.0       0.471215  0.044822  0.757000  Biso      1.000000  S        
         S         1.0       0.391433  0.882819  0.242000  Biso      1.000000  S        
         S         1.0       0.391433  0.882819  0.757000  Biso      1.000000  S        
         S         1.0       0.399145  0.809814  0.242000  Biso      1.000000  S        
         S         1.0       0.399145  0.809814  0.757000  Biso      1.000000  S        
         S         1.0       0.398607  0.736140  0.242000  Biso      1.000000  S        
         S         1.0       0.398607  0.736140  0.757000  Biso      1.000000  S        
         S         1.0       0.402210  0.667095  0.242000  Biso      1.000000  S        
         S         1.0       0.402210  0.667095  0.757000  Biso      1.000000  S        
         S         1.0       0.402654  0.594248  0.242000  Biso      1.000000  S        
         S         1.0       0.402654  0.594248  0.757000  Biso      1.000000  S        
         Se        1.0       0.411467  0.520886  0.242000  Biso      1.000000  Se       
         S         1.0       0.411467  0.520886  0.757000  Biso      1.000000  S        
         S         1.0       0.413912  0.447355  0.242000  Biso      1.000000  S        
         S         1.0       0.413912  0.447355  0.757000  Biso      1.000000  S        
         S         1.0       0.415303  0.374485  0.242000  Biso      1.000000  S        
         S         1.0       0.415303  0.374485  0.757000  Biso      1.000000  S        
         S         1.0       0.421348  0.301625  0.242000  Biso      1.000000  S        
         S         1.0       0.421348  0.301625  0.757000  Biso      1.000000  S        
         S         1.0       0.423306  0.229732  0.242000  Biso      1.000000  S        
         S         1.0       0.423306  0.229732  0.757000  Biso      1.000000  S        
         S         1.0       0.427405  0.154104  0.242000  Biso      1.000000  S        
         S         1.0       0.427405  0.154104  0.757000  Biso      1.000000  S        
         S         1.0       0.432599  0.083618  0.242000  Biso      1.000000  S        
         S         1.0       0.432599  0.083618  0.757000  Biso      1.000000  S        
         S         1.0       0.358803  0.919840  0.242000  Biso      1.000000  S        
         S         1.0       0.358803  0.919840  0.757000  Biso      1.000000  S        
         S         1.0       0.355215  0.849108  0.242000  Biso      1.000000  S        
         S         1.0       0.355215  0.849108  0.757000  Biso      1.000000  S        
         S         1.0       0.366199  0.772929  0.242000  Biso      1.000000  S        
         S         1.0       0.366199  0.772929  0.757000  Biso      1.000000  S        
         S         1.0       0.369118  0.703562  0.242000  Biso      1.000000  S        
         S         1.0       0.369118  0.703562  0.757000  Biso      1.000000  S        
         S         1.0       0.368912  0.630212  0.242000  Biso      1.000000  S        
         S         1.0       0.368912  0.630212  0.757000  Biso      1.000000  S        
         S         1.0       0.371017  0.557237  0.242000  Biso      1.000000  S        
         S         1.0       0.371017  0.557237  0.757000  Biso      1.000000  S        
         S         1.0       0.377206  0.484782  0.242000  Biso      1.000000  S        
         S         1.0       0.377206  0.484782  0.757000  Biso      1.000000  S        
         S         1.0       0.381106  0.413309  0.242000  Biso      1.000000  S        
         S         1.0       0.381106  0.413309  0.757000  Biso      1.000000  S        
         S         1.0       0.385971  0.340326  0.242000  Biso      1.000000  S        
         S         1.0       0.385971  0.340326  0.757000  Biso      1.000000  S        
         S         1.0       0.389364  0.265697  0.242000  Biso      1.000000  S        
         S         1.0       0.389364  0.265697  0.757000  Biso      1.000000  S        
         S         1.0       0.395461  0.193698  0.242000  Biso      1.000000  S        
         S         1.0       0.395461  0.193698  0.757000  Biso      1.000000  S        
         S         1.0       0.395194  0.123145  0.242000  Biso      1.000000  S        
         S         1.0       0.395194  0.123145  0.757000  Biso      1.000000  S        
         S         1.0       0.401035  0.047401  0.242000  Biso      1.000000  S        
         S         1.0       0.401035  0.047401  0.757000  Biso      1.000000  S        
         S         1.0       0.325966  0.883017  0.242000  Biso      1.000000  S        
         S         1.0       0.325966  0.883017  0.757000  Biso      1.000000  S        
         S         1.0       0.327006  0.809508  0.242000  Biso      1.000000  S        
         S         1.0       0.327006  0.809508  0.757000  Biso      1.000000  S        
         S         1.0       0.329655  0.738796  0.242000  Biso      1.000000  S        
         S         1.0       0.329655  0.738796  0.757000  Biso      1.000000  S        
         S         1.0       0.332805  0.669587  0.242000  Biso      1.000000  S        
         S         1.0       0.332805  0.669587  0.757000  Biso      1.000000  S        
         S         1.0       0.336563  0.595658  0.242000  Biso      1.000000  S        
         S         1.0       0.336563  0.595658  0.757000  Biso      1.000000  S        
         Se        1.0       0.340949  0.523032  0.757000  Biso      1.000000  Se       
         S         1.0       0.343671  0.447768  0.242000  Biso      1.000000  S        
         S         1.0       0.343671  0.447768  0.757000  Biso      1.000000  S        
         S         1.0       0.352092  0.373929  0.242000  Biso      1.000000  S        
         S         1.0       0.352092  0.373929  0.757000  Biso      1.000000  S        
         S         1.0       0.353834  0.303039  0.242000  Biso      1.000000  S        
         S         1.0       0.353834  0.303039  0.757000  Biso      1.000000  S        
         S         1.0       0.356544  0.232373  0.242000  Biso      1.000000  S        
         S         1.0       0.356544  0.232373  0.757000  Biso      1.000000  S        
         S         1.0       0.361903  0.157435  0.242000  Biso      1.000000  S        
         S         1.0       0.361903  0.157435  0.757000  Biso      1.000000  S        
         S         1.0       0.363085  0.083256  0.242000  Biso      1.000000  S        
         S         1.0       0.363085  0.083256  0.757000  Biso      1.000000  S        
         S         1.0       0.290249  0.919476  0.242000  Biso      1.000000  S        
         S         1.0       0.290249  0.919476  0.757000  Biso      1.000000  S        
         S         1.0       0.293493  0.846132  0.242000  Biso      1.000000  S        
         S         1.0       0.293493  0.846132  0.757000  Biso      1.000000  S        
         S         1.0       0.292654  0.775124  0.242000  Biso      1.000000  S        
         S         1.0       0.292654  0.775124  0.757000  Biso      1.000000  S        
         S         1.0       0.298348  0.703312  0.242000  Biso      1.000000  S        
         S         1.0       0.298348  0.703312  0.757000  Biso      1.000000  S        
         S         1.0       0.300556  0.631270  0.242000  Biso      1.000000  S        
         S         1.0       0.300556  0.631270  0.757000  Biso      1.000000  S        
         S         1.0       0.299482  0.558855  0.242000  Biso      1.000000  S        
         S         1.0       0.299482  0.558855  0.757000  Biso      1.000000  S        
         S         1.0       0.307213  0.485788  0.242000  Biso      1.000000  S        
         S         1.0       0.307213  0.485788  0.757000  Biso      1.000000  S        
         S         1.0       0.313478  0.414299  0.242000  Biso      1.000000  S        
         S         1.0       0.313478  0.414299  0.757000  Biso      1.000000  S        
         S         1.0       0.320373  0.339348  0.242000  Biso      1.000000  S        
         S         1.0       0.320373  0.339348  0.757000  Biso      1.000000  S        
         S         1.0       0.323797  0.267105  0.242000  Biso      1.000000  S        
         S         1.0       0.323797  0.267105  0.757000  Biso      1.000000  S        
         S         1.0       0.326409  0.193288  0.242000  Biso      1.000000  S        
         S         1.0       0.326409  0.193288  0.757000  Biso      1.000000  S        
         S         1.0       0.327900  0.122907  0.242000  Biso      1.000000  S        
         S         1.0       0.327900  0.122907  0.757000  Biso      1.000000  S        
         Se        1.0       0.332246  0.048574  0.242000  Biso      1.000000  Se       
         S         1.0       0.332246  0.048574  0.757000  Biso      1.000000  S        
         S         1.0       0.257364  0.884618  0.242000  Biso      1.000000  S        
         S         1.0       0.257364  0.884618  0.757000  Biso      1.000000  S        
         S         1.0       0.260869  0.810246  0.242000  Biso      1.000000  S        
         S         1.0       0.260869  0.810246  0.757000  Biso      1.000000  S        
         S         1.0       0.262957  0.739862  0.242000  Biso      1.000000  S        
         S         1.0       0.262957  0.739862  0.757000  Biso      1.000000  S        
         S         1.0       0.267338  0.668520  0.757000  Biso      1.000000  S        
         S         1.0       0.271374  0.595328  0.242000  Biso      1.000000  S        
         S         1.0       0.271374  0.595328  0.757000  Biso      1.000000  S        
         S         1.0       0.272905  0.526094  0.242000  Biso      1.000000  S        
         S         1.0       0.272905  0.526094  0.757000  Biso      1.000000  S        
         S         1.0       0.276173  0.450059  0.242000  Biso      1.000000  S        
         S         1.0       0.276173  0.450059  0.757000  Biso      1.000000  S        
         S         1.0       0.281000  0.379490  0.242000  Biso      1.000000  S        
         S         1.0       0.281000  0.379490  0.757000  Biso      1.000000  S        
         S         1.0       0.283009  0.304999  0.242000  Biso      1.000000  S        
         S         1.0       0.283009  0.304999  0.757000  Biso      1.000000  S        
         S         1.0       0.286830  0.234170  0.242000  Biso      1.000000  S        
         S         1.0       0.286830  0.234170  0.757000  Biso      1.000000  S        
         S         1.0       0.291860  0.161432  0.242000  Biso      1.000000  S        
         S         1.0       0.291860  0.161432  0.757000  Biso      1.000000  S        
         S         1.0       0.294456  0.086950  0.242000  Biso      1.000000  S        
         S         1.0       0.294456  0.086950  0.757000  Biso      1.000000  S        
         S         1.0       0.223751  0.921628  0.242000  Biso      1.000000  S        
         S         1.0       0.223751  0.921628  0.757000  Biso      1.000000  S        
         S         1.0       0.224128  0.847867  0.242000  Biso      1.000000  S        
         S         1.0       0.224128  0.847867  0.757000  Biso      1.000000  S        
         S         1.0       0.230973  0.777164  0.242000  Biso      1.000000  S        
         S         1.0       0.230973  0.777164  0.757000  Biso      1.000000  S        
         S         1.0       0.232970  0.708127  0.242000  Biso      1.000000  S        
         S         1.0       0.232970  0.708127  0.757000  Biso      1.000000  S        
         S         1.0       0.237522  0.632841  0.242000  Biso      1.000000  S        
         S         1.0       0.237522  0.632841  0.757000  Biso      1.000000  S        
         S         1.0       0.239155  0.561051  0.242000  Biso      1.000000  S        
         S         1.0       0.239155  0.561051  0.757000  Biso      1.000000  S        
         S         1.0       0.242436  0.485836  0.242000  Biso      1.000000  S        
         S         1.0       0.242436  0.485836  0.757000  Biso      1.000000  S        
         S         1.0       0.242864  0.416769  0.242000  Biso      1.000000  S        
         S         1.0       0.242864  0.416769  0.757000  Biso      1.000000  S        
         S         1.0       0.252880  0.342029  0.242000  Biso      1.000000  S        
         S         1.0       0.252880  0.342029  0.757000  Biso      1.000000  S        
         S         1.0       0.250509  0.266892  0.242000  Biso      1.000000  S        
         S         1.0       0.250509  0.266892  0.757000  Biso      1.000000  S        
         S         1.0       0.257035  0.194967  0.242000  Biso      1.000000  S        
         S         1.0       0.257035  0.194967  0.757000  Biso      1.000000  S        
         S         1.0       0.257101  0.122704  0.242000  Biso      1.000000  S        
         S         1.0       0.257101  0.122704  0.757000  Biso      1.000000  S        
         S         1.0       0.265581  0.051610  0.242000  Biso      1.000000  S        
         S         1.0       0.265581  0.051610  0.757000  Biso      1.000000  S        
         S         1.0       0.188258  0.884846  0.242000  Biso      1.000000  S        
         S         1.0       0.188258  0.884846  0.757000  Biso      1.000000  S        
         S         1.0       0.187170  0.812373  0.242000  Biso      1.000000  S        
         S         1.0       0.187170  0.812373  0.757000  Biso      1.000000  S        
         S         1.0       0.197918  0.739242  0.242000  Biso      1.000000  S        
         S         1.0       0.197918  0.739242  0.757000  Biso      1.000000  S        
         S         1.0       0.198238  0.671433  0.242000  Biso      1.000000  S        
         S         1.0       0.198238  0.671433  0.757000  Biso      1.000000  S        
         S         1.0       0.203936  0.597162  0.242000  Biso      1.000000  S        
         S         1.0       0.203936  0.597162  0.757000  Biso      1.000000  S        
         S         1.0       0.210184  0.524892  0.242000  Biso      1.000000  S        
         S         1.0       0.210184  0.524892  0.757000  Biso      1.000000  S        
         S         1.0       0.210076  0.451265  0.242000  Biso      1.000000  S        
         S         1.0       0.210076  0.451265  0.757000  Biso      1.000000  S        
         S         1.0       0.217165  0.378279  0.757000  Biso      1.000000  S        
         S         1.0       0.217535  0.305549  0.242000  Biso      1.000000  S        
         S         1.0       0.217535  0.305549  0.757000  Biso      1.000000  S        
         S         1.0       0.222907  0.234647  0.242000  Biso      1.000000  S        
         S         1.0       0.222907  0.234647  0.757000  Biso      1.000000  S        
         S         1.0       0.224161  0.160307  0.242000  Biso      1.000000  S        
         S         1.0       0.224161  0.160307  0.757000  Biso      1.000000  S        
         S         1.0       0.231286  0.089466  0.242000  Biso      1.000000  S        
         S         1.0       0.231286  0.089466  0.757000  Biso      1.000000  S        
         S         1.0       0.153541  0.922292  0.242000  Biso      1.000000  S        
         S         1.0       0.153541  0.922292  0.757000  Biso      1.000000  S        
         S         1.0       0.155202  0.846836  0.242000  Biso      1.000000  S        
         S         1.0       0.155202  0.846836  0.757000  Biso      1.000000  S        
         S         1.0       0.157949  0.776734  0.242000  Biso      1.000000  S        
         S         1.0       0.157949  0.776734  0.757000  Biso      1.000000  S        
         S         1.0       0.166466  0.706757  0.242000  Biso      1.000000  S        
         S         1.0       0.166466  0.706757  0.757000  Biso      1.000000  S        
         S         1.0       0.170237  0.634905  0.242000  Biso      1.000000  S        
         S         1.0       0.170237  0.634905  0.757000  Biso      1.000000  S        
         S         1.0       0.167993  0.561990  0.242000  Biso      1.000000  S        
         S         1.0       0.167993  0.561990  0.757000  Biso      1.000000  S        
         S         1.0       0.176349  0.487592  0.242000  Biso      1.000000  S        
         S         1.0       0.176349  0.487592  0.757000  Biso      1.000000  S        
         S         1.0       0.177388  0.417864  0.242000  Biso      1.000000  S        
         S         1.0       0.177388  0.417864  0.757000  Biso      1.000000  S        
         S         1.0       0.180030  0.344773  0.242000  Biso      1.000000  S        
         S         1.0       0.180030  0.344773  0.757000  Biso      1.000000  S        
         S         1.0       0.182380  0.268048  0.242000  Biso      1.000000  S        
         S         1.0       0.182380  0.268048  0.757000  Biso      1.000000  S        
         S         1.0       0.191010  0.197389  0.242000  Biso      1.000000  S        
         S         1.0       0.191010  0.197389  0.757000  Biso      1.000000  S        
         S         1.0       0.197796  0.125325  0.242000  Biso      1.000000  S        
         S         1.0       0.197796  0.125325  0.757000  Biso      1.000000  S        
         S         1.0       0.198121  0.053581  0.242000  Biso      1.000000  S        
         S         1.0       0.198121  0.053581  0.757000  Biso      1.000000  S        
         S         1.0       0.121066  0.883288  0.242000  Biso      1.000000  S        
         S         1.0       0.121066  0.883288  0.757000  Biso      1.000000  S        
         S         1.0       0.124170  0.808032  0.242000  Biso      1.000000  S        
         S         1.0       0.124170  0.808032  0.757000  Biso      1.000000  S        
         S         1.0       0.128262  0.741548  0.242000  Biso      1.000000  S        
         S         1.0       0.128262  0.741548  0.757000  Biso      1.000000  S        
         S         1.0       0.130173  0.672072  0.242000  Biso      1.000000  S        
         S         1.0       0.130173  0.672072  0.757000  Biso      1.000000  S        
         S         1.0       0.137144  0.599738  0.242000  Biso      1.000000  S        
         S         1.0       0.137144  0.599738  0.757000  Biso      1.000000  S        
         S         1.0       0.139380  0.527861  0.242000  Biso      1.000000  S        
         S         1.0       0.139380  0.527861  0.757000  Biso      1.000000  S        
         S         1.0       0.143357  0.451274  0.242000  Biso      1.000000  S        
         S         1.0       0.143357  0.451274  0.757000  Biso      1.000000  S        
         S         1.0       0.146450  0.380432  0.242000  Biso      1.000000  S        
         S         1.0       0.146450  0.380432  0.757000  Biso      1.000000  S        
         S         1.0       0.151028  0.306498  0.242000  Biso      1.000000  S        
         S         1.0       0.151028  0.306498  0.757000  Biso      1.000000  S        
         S         1.0       0.154166  0.234850  0.242000  Biso      1.000000  S        
         S         1.0       0.154166  0.234850  0.757000  Biso      1.000000  S        
         Se        1.0       0.158794  0.161967  0.242000  Biso      1.000000  Se       
         S         1.0       0.158794  0.161967  0.757000  Biso      1.000000  S        
         S         1.0       0.160280  0.091469  0.242000  Biso      1.000000  S        
         S         1.0       0.160280  0.091469  0.757000  Biso      1.000000  S        
         S         1.0       0.092444  0.922233  0.242000  Biso      1.000000  S        
         S         1.0       0.092444  0.922233  0.757000  Biso      1.000000  S        
         Se        1.0       0.078629  0.849546  0.757000  Biso      1.000000  Se       
         S         1.0       0.088143  0.780720  0.242000  Biso      1.000000  S        
         S         1.0       0.088143  0.780720  0.757000  Biso      1.000000  S        
         S         1.0       0.097411  0.709677  0.242000  Biso      1.000000  S        
         S         1.0       0.097411  0.709677  0.757000  Biso      1.000000  S        
         S         1.0       0.100135  0.636901  0.242000  Biso      1.000000  S        
         S         1.0       0.100135  0.636901  0.757000  Biso      1.000000  S        
         S         1.0       0.102568  0.564657  0.242000  Biso      1.000000  S        
         S         1.0       0.102568  0.564657  0.757000  Biso      1.000000  S        
         S         1.0       0.106974  0.490385  0.242000  Biso      1.000000  S        
         S         1.0       0.106974  0.490385  0.757000  Biso      1.000000  S        
         S         1.0       0.114675  0.417065  0.242000  Biso      1.000000  S        
         S         1.0       0.114675  0.417065  0.757000  Biso      1.000000  S        
         S         1.0       0.115276  0.344696  0.242000  Biso      1.000000  S        
         S         1.0       0.115276  0.344696  0.757000  Biso      1.000000  S        
         S         1.0       0.120972  0.271340  0.757000  Biso      1.000000  S        
         S         1.0       0.124890  0.199125  0.242000  Biso      1.000000  S        
         S         1.0       0.124890  0.199125  0.757000  Biso      1.000000  S        
         S         1.0       0.120569  0.127610  0.242000  Biso      1.000000  S        
         S         1.0       0.120569  0.127610  0.757000  Biso      1.000000  S        
         S         1.0       0.129659  0.054561  0.242000  Biso      1.000000  S        
         S         1.0       0.129659  0.054561  0.757000  Biso      1.000000  S        
         S         1.0       0.054338  0.887973  0.242000  Biso      1.000000  S        
         S         1.0       0.054338  0.887973  0.757000  Biso      1.000000  S        
         S         1.0       0.056960  0.812727  0.757000  Biso      1.000000  S        
         S         1.0       0.061780  0.743643  0.242000  Biso      1.000000  S        
         S         1.0       0.061780  0.743643  0.757000  Biso      1.000000  S        
         S         1.0       0.061512  0.672508  0.242000  Biso      1.000000  S        
         S         1.0       0.061512  0.672508  0.757000  Biso      1.000000  S        
         S         1.0       0.068485  0.601891  0.242000  Biso      1.000000  S        
         S         1.0       0.068485  0.601891  0.757000  Biso      1.000000  S        
         S         1.0       0.070822  0.528535  0.242000  Biso      1.000000  S        
         S         1.0       0.070822  0.528535  0.757000  Biso      1.000000  S        
         S         1.0       0.077232  0.452690  0.242000  Biso      1.000000  S        
         S         1.0       0.077232  0.452690  0.757000  Biso      1.000000  S        
         S         1.0       0.082076  0.381568  0.242000  Biso      1.000000  S        
         S         1.0       0.082076  0.381568  0.757000  Biso      1.000000  S        
         S         1.0       0.084766  0.310377  0.242000  Biso      1.000000  S        
         S         1.0       0.084766  0.310377  0.757000  Biso      1.000000  S        
         S         1.0       0.087629  0.237865  0.242000  Biso      1.000000  S        
         S         1.0       0.087629  0.237865  0.757000  Biso      1.000000  S        
         S         1.0       0.094458  0.164180  0.242000  Biso      1.000000  S        
         S         1.0       0.094458  0.164180  0.757000  Biso      1.000000  S        
         S         1.0       0.092679  0.090765  0.242000  Biso      1.000000  S        
         S         1.0       0.092679  0.090765  0.757000  Biso      1.000000  S        
         S         1.0       0.025773  0.854874  0.242000  Biso      1.000000  S        
         S         1.0       0.025773  0.854874  0.757000  Biso      1.000000  S        
         Se        1.0       0.030865  0.783117  0.757000  Biso      1.000000  Se       
         S         1.0       0.029669  0.710293  0.242000  Biso      1.000000  S        
         S         1.0       0.029669  0.710293  0.757000  Biso      1.000000  S        
         S         1.0       0.030006  0.638316  0.757000  Biso      1.000000  S        
         S         1.0       0.033042  0.566616  0.242000  Biso      1.000000  S        
         S         1.0       0.033042  0.566616  0.757000  Biso      1.000000  S        
         S         1.0       0.036576  0.493222  0.242000  Biso      1.000000  S        
         S         1.0       0.036576  0.493222  0.757000  Biso      1.000000  S        
         S         1.0       0.042774  0.419864  0.242000  Biso      1.000000  S        
         S         1.0       0.042774  0.419864  0.757000  Biso      1.000000  S        
         S         1.0       0.047679  0.346679  0.242000  Biso      1.000000  S        
         S         1.0       0.047679  0.346679  0.757000  Biso      1.000000  S        
         S         1.0       0.052386  0.274100  0.242000  Biso      1.000000  S        
         S         1.0       0.052386  0.274100  0.757000  Biso      1.000000  S        
         S         1.0       0.055507  0.201723  0.242000  Biso      1.000000  S        
         S         1.0       0.055507  0.201723  0.757000  Biso      1.000000  S        
         S         1.0       0.054096  0.129620  0.242000  Biso      1.000000  S        
         S         1.0       0.054096  0.129620  0.757000  Biso      1.000000  S        
         S         1.0       0.022906  0.166010  0.242000  Biso      1.000000  S        
         S         1.0       0.022906  0.166010  0.757000  Biso      1.000000  S        
         S         1.0       0.023875  0.094440  0.242000  Biso      1.000000  S        
         S         1.0       0.023875  0.094440  0.757000  Biso      1.000000  S        
         Mo        1.0       0.445339  0.504064  0.950000  Biso      1.000000  Mo       
         Se        1.0       0.055648  0.836976  0.950000  Biso      1.000000  Se